pglib_opf_case118_ieee/dapi/pglib_opf_case118_ieee_3regions_dapi.m
% -------------------------------------------------------------------------
% Partitioned MATPOWER Case File
% Copyright (c) 2025 Milad Hasanzadeh
% Generated on: 2026-06-14
% This file contains partitioned data for 3 regions


% -------------------- mpc_regionR1 --------------------

mpc_regionR1.version = '2';
mpc_regionR1.baseMVA = 100.0000;
mpc_regionR1.bus = [
%	bus_i       type        Pd          Qd          Gs          Bs          area        Vm          Va          baseKV      zone        Vmax        Vmin        
	 1	 2	 102.2	 28	 0	 0	 1	 1	 0	 138	 1	 1.06	 0.94;
	 2	 1	 118.96	 26	 0	 0	 1	 1	 0	 138	 1	 1.06	 0.94;
	 3	 1	 65.34	 32	 0	 20	 1	 1	 0	 138	 1	 1.06	 0.94;
	 4	 2	 217.81	 26	 0	 0	 1	 1	 0	 138	 1	 1.06	 0.94;
	 5	 1	 90.47	 27	 0	 20	 1	 1	 0	 138	 1	 1.06	 0.94;
	 6	 1	 33.51	 10	 0	 10	 1	 1	 0	 138	 1	 1.06	 0.94;
	 7	 1	 18.43	 7	 0	 0	 1	 1	 0	 138	 1	 1.06	 0.94;
	 8	 2	 40.21	 15	 0	 0	 1	 1	 0	 138	 1	 1.06	 0.94;
	 9	 1	 35.18	 10	 0	 0	 1	 1	 0	 138	 1	 1.06	 0.94;
	 10	 2	 0	 0	 0	 0	 1	 1	 0	 161	 1	 1.06	 0.94;
	 11	 1	 80.42	 10	 0	 0	 1	 1	 0	 138	 1	 1.06	 0.94;
	 12	 2	 0	 0	 0	 0	 1	 1	 0	 138	 1	 1.06	 0.94;
	 13	 2	 273.1	 42	 0	 0	 1	 1	 0	 138	 1	 1.06	 0.94;
	 14	 2	 10	 0	 0	 0	 1	 1	 0	 138	 1	 1.06	 0.94;
	 15	 2	 108.9	 10	 0	 0	 1	 1	 0	 138	 1	 1.06	 0.94;
	 16	 1	 20.11	 7	 0	 0	 1	 1	 0	 138	 1	 1.06	 0.94;
	 17	 1	 50.26	 16	 0	 0	 1	 1	 0	 138	 1	 1.06	 0.94;
	 18	 1	 70.37	 31	 0	 0	 1	 1	 0	 138	 1	 1.06	 0.94;
	 19	 1	 63.67	 15	 0	 0	 1	 1	 0	 138	 1	 1.06	 0.94;
	 20	 1	 25.13	 9	 0	 0	 1	 1	 0	 138	 1	 1.06	 0.94;
	 21	 1	 56.96	 8	 0	 0	 1	 1	 0	 138	 1	 1.06	 0.94;
	 22	 2	 42	 0	 0	 0	 1	 1	 0	 138	 1	 1.06	 0.94;
	 23	 2	 61.99	 18	 0	 0	 1	 1	 0	 138	 1	 1.06	 0.94;
	 24	 1	 36.86	 15	 0	 0	 1	 1	 0	 138	 1	 1.06	 0.94;
	 25	 1	 8.38	 3	 0	 0	 1	 1	 0	 138	 1	 1.06	 0.94;
	 26	 2	 38.54	 16	 0	 0	 1	 1	 0	 138	 1	 1.06	 0.94;
	 27	 2	 63.67	 25	 0	 0	 1	 1	 0	 138	 1	 1.06	 0.94;
	 28	 2	 51.94	 26	 0	 20	 1	 1	 0	 138	 1	 1.06	 0.94;
	 29	 1	 72.04	 16	 0	 0	 1	 1	 0	 138	 1	 1.06	 0.94;
	 30	 2	 83.77	 12	 0	 6	 1	 1	 0	 138	 1	 1.06	 0.94;
	 31	 1	 3.35	 1	 0	 0	 1	 1	 0	 138	 1	 1.06	 0.94;
	 32	 1	 13.4	 3	 0	 0	 1	 1	 0	 138	 1	 1.06	 0.94;
	 33	 2	 65.34	 30	 0	 6	 1	 1	 0	 138	 1	 1.06	 0.94;
	 34	 2	 0	 0	 0	 0	 1	 1	 0	 138	 1	 1.06	 0.94;
	 35	 2	 113.93	 13	 0	 0	 1	 1	 0	 138	 1	 1.06	 0.94;
];

mpc_regionR1.gen = [
%	bus         Pg          Qg          Qmax        Qmin        Vg          mBase       status      Pmax        Pmin        Pc1         Pc2         Qc1min      Qc1max      Qc2min      Qc2max      ramp_agc    ramp_10     ramp_30     ramp_q      apf         
	 1	 0	 0	 207.6	-207.6	 1	 100	 1	 0	 0;
	 4	 152.5	 9.9	 255	-235.2	 1	 100	 1	 305	 0;
	 8	 0	 0	 277.2	-277.2	 1	 100	 1	 0	 0;
	 10	 79.5	 0	 80	-80	 1	 100	 1	 159	 0;
	 12	 574	 0	 574	-574	 1	 100	 1	 1148	 0;
	 13	 0	 0	 300	-300	 1	 100	 1	 0	 0;
	 14	 0	 0	 100	-100	 1	 100	 1	 0	 0;
	 15	 0	 0.9	 9	-7.2	 1	 100	 1	 0	 0;
	 22	 0	 0	 100	-100	 1	 100	 1	 0	 0;
	 23	 457.5	 0	 458	-458	 1	 100	 1	 915	 0;
	 26	 168	 0	 168	-168	 1	 100	 1	 336	 0;
	 27	 0	 0	 84	-84	 1	 100	 1	 0	 0;
	 28	 0	 0	 62.4	-62.4	 1	 100	 1	 0	 0;
	 30	 0	 0	 200	-200	 1	 100	 1	 0	 0;
	 33	 0	 0	 84	-84	 1	 100	 1	 0	 0;
	 34	 94.5	 0	 95	-95	 1	 100	 1	 189	 0;
	 35	 0	 450	 1000	-100	 1	 100	 1	 0	 0;
];

mpc_regionR1.branch = [
%	fbus        tbus        r           x           b           rateA       rateB       rateC       ratio       angle       status      angmin      angmax      
	 1	 2	 0.00376	 0.0124	 0.01264	 151	 151	 151	 0	 0	 1	-30	 30;
	 2	 3	 0.00546	 0.0244	 0.00648	 174	 174	 174	 0	 0	 1	-30	 30;
	 1	 4	 0.017	 0.0485	 0.0472	 141	 141	 141	 0	 0	 1	-30	 30;
	 1	 4	 0.0294	 0.105	 0.0228	 157	 157	 157	 0	 0	 1	-30	 30;
	 3	 4	 0.0156	 0.0704	 0.0187	 175	 175	 175	 0	 0	 1	-30	 30;
	 1	 5	 0.0298	 0.0853	 0.08174	 141	 141	 141	 0	 0	 1	-30	 30;
	 5	 6	 0.0112	 0.03665	 0.03796	 150	 150	 150	 0	 0	 1	-30	 30;
	 6	 7	 0.0625	 0.132	 0.0258	 122	 122	 122	 0	 0	 1	-30	 30;
	 6	 8	 0.043	 0.148	 0.0348	 154	 154	 154	 0	 0	 1	-30	 30;
	 7	 8	 0.0302	 0.0641	 0.01234	 122	 122	 122	 0	 0	 1	-30	 30;
	 8	 9	 0.035	 0.123	 0.0276	 156	 156	 156	 0	 0	 1	-30	 30;
	 9	 10	 0.02828	 0.2074	 0.0445	 141	 141	 141	 1	 0	 1	-30	 30;
	 8	 11	 0.02	 0.102	 0.0276	 186	 186	 186	 0	 0	 1	-30	 30;
	 8	 12	 0.0239	 0.173	 0.047	 168	 168	 168	 0	 0	 1	-30	 30;
	 11	 12	 0.0139	 0.0712	 0.01934	 186	 186	 186	 0	 0	 1	-30	 30;
	 12	 13	 0.0518	 0.188	 0.0528	 151	 151	 151	 0	 0	 1	-30	 30;
	 12	 13	 0.0238	 0.0997	 0.106	 169	 169	 169	 0	 0	 1	-30	 30;
	 13	 14	 0.0254	 0.0836	 0.0214	 151	 151	 151	 0	 0	 1	-30	 30;
	 12	 15	 0.0099	 0.0505	 0.0548	 186	 186	 186	 0	 0	 1	-30	 30;
	 12	 15	 0.0393	 0.1581	 0.0414	 166	 166	 166	 0	 0	 1	-30	 30;
	 14	 15	 0.0387	 0.1272	 0.03268	 151	 151	 151	 0	 0	 1	-30	 30;
	 15	 16	 0.0258	 0.0848	 0.0218	 151	 151	 151	 0	 0	 1	-30	 30;
	 15	 17	 0.0481	 0.158	 0.0406	 151	 151	 151	 0	 0	 1	-30	 30;
	 16	 17	 0.0223	 0.0732	 0.01876	 151	 151	 151	 0	 0	 1	-30	 30;
	 17	 18	 0.0132	 0.0434	 0.0111	 151	 151	 151	 0	 0	 1	-30	 30;
	 4	 19	 0.0356	 0.182	 0.0494	 159	 159	 159	 0	 0	 1	-30	 30;
	 5	 19	 0.0162	 0.053	 0.0544	 150	 150	 150	 0	 0	 1	-30	 30;
	 17	 19	 0.0269	 0.0869	 0.023	 149	 149	 149	 0	 0	 1	-30	 30;
	 4	 20	 0.0183	 0.0934	 0.0254	 186	 186	 186	 0	 0	 1	-30	 30;
	 4	 21	 0.0238	 0.108	 0.0286	 176	 176	 176	 0	 0	 1	-30	 30;
	 4	 22	 0.0454	 0.206	 0.0546	 140	 140	 140	 0	 0	 1	-30	 30;
	 15	 23	 0.0648	 0.295	 0.0472	 98	 98	 98	 0	 0	 1	-30	 30;
	 17	 23	 0.0178	 0.058	 0.0604	 150	 150	 150	 0	 0	 1	-30	 30;
	 18	 19	 0.0171	 0.0547	 0.01474	 149	 149	 149	 0	 0	 1	-30	 30;
	 19	 20	 0.0173	 0.0885	 0.024	 186	 186	 186	 0	 0	 1	-30	 30;
	 21	 23	 0.0397	 0.179	 0.0476	 160	 160	 160	 0	 0	 1	-30	 30;
	 22	 23	 0.018	 0.0813	 0.0216	 175	 175	 175	 0	 0	 1	-30	 30;
	 23	 24	 0.0277	 0.1262	 0.0328	 176	 176	 176	 0	 0	 1	-30	 30;
	 15	 25	 0.0123	 0.0559	 0.01464	 176	 176	 176	 0	 0	 1	-30	 30;
	 24	 25	 0.0246	 0.112	 0.0294	 176	 176	 176	 0	 0	 1	-30	 30;
	 23	 26	 0.016	 0.0525	 0.0536	 151	 151	 151	 0	 0	 1	-30	 30;
	 23	 27	 0.0451	 0.204	 0.0541	 141	 141	 141	 0	 0	 1	-30	 30;
	 26	 27	 0.0466	 0.1584	 0.0407	 153	 153	 153	 0	 0	 1	-30	 30;
	 26	 28	 0.0535	 0.1625	 0.0408	 145	 145	 145	 0	 0	 1	-30	 30;
	 23	 29	 0.0605	 0.229	 0.062	 124	 124	 124	 0	 0	 1	-30	 30;
	 27	 28	 0.00994	 0.0378	 0.00986	 161	 161	 161	 0	 0	 1	-30	 30;
	 28	 29	 0.014	 0.0547	 0.01434	 164	 164	 164	 0	 0	 1	-30	 30;
	 28	 30	 0.053	 0.183	 0.0472	 154	 154	 154	 0	 0	 1	-30	 30;
	 28	 31	 0.0261	 0.0703	 0.01844	 137	 137	 137	 0	 0	 1	-30	 30;
	 29	 30	 0.053	 0.183	 0.0472	 154	 154	 154	 0	 0	 1	-30	 30;
	 31	 32	 0.0105	 0.0288	 0.0076	 138	 138	 138	 0	 0	 1	-30	 30;
	 26	 33	 0.03906	 0.1813	 0.0461	 159	 159	 159	 0	 0	 1	-30	 30;
	 32	 33	 0.0278	 0.0762	 0.0202	 138	 138	 138	 0	 0	 1	-30	 30;
	 33	 34	 0.022	 0.0755	 0.02	 154	 154	 154	 0	 0	 1	-30	 30;
	 33	 35	 0.0247	 0.064	 0.062	 135	 135	 135	 0	 0	 1	-30	 30;
];

mpc_regionR1.gencost = [
%	2           startup     shutdown    n           c(n-1)...c0 
	 2	 0	 0	 3	 0	 0	 0;
	 2	 0	 0	 3	 0	 24.600772	 0;
	 2	 0	 0	 3	 0	 0	 0;
	 2	 0	 0	 3	 0	 34.072633	 0;
	 2	 0	 0	 3	 0	 24.605102	 0;
	 2	 0	 0	 3	 0	 0	 0;
	 2	 0	 0	 3	 0	 0	 0;
	 2	 0	 0	 3	 0	 0	 0;
	 2	 0	 0	 3	 0	 0	 0;
	 2	 0	 0	 3	 0	 12.61217	 0;
	 2	 0	 0	 3	 0	 28.649471	 0;
	 2	 0	 0	 3	 0	 0	 0;
	 2	 0	 0	 3	 0	 0	 0;
	 2	 0	 0	 3	 0	 0	 0;
	 2	 0	 0	 3	 0	 0	 0;
	 2	 0	 0	 3	 0	 35.043401	 0;
	 2	 0	 0	 3	 0	 0	 0;
];


% -------------------- mpc_regionR2 --------------------

mpc_regionR2.version = '2';
mpc_regionR2.baseMVA = 100.0000;
mpc_regionR2.bus = [
%	bus_i       type        Pd          Qd          Gs          Bs          area        Vm          Va          baseKV      zone        Vmax        Vmin        
	 1	 2	 13	 0	 0	 0	 1	 1	 0	 138	 1	 1.06	 0.94;
	 2	 1	 55.29	 9	 0	 0	 1	 1	 0	 138	 1	 1.06	 0.94;
	 3	 1	 0	 0	 0	-25	 1	 1	 0	 138	 1	 1.06	 0.94;
	 4	 1	 0	 0	 0	 0	 1	 1	 0	 345	 1	 1.06	 0.94;
	 5	 1	 45.24	 11	 0	 0	 1	 1	 0	 138	 1	 1.06	 0.94;
	 6	 2	 110.58	 23	 0	 0	 1	 1	 0	 138	 1	 1.06	 0.94;
	 7	 1	 61.99	 10	 0	 0	 1	 1	 0	 138	 1	 1.06	 0.94;
	 8	 2	 160.84	 23	 0	 0	 1	 1	 0	 138	 1	 1.06	 0.94;
	 9	 1	 30.16	 7	 0	 0	 1	 1	 0	 138	 1	 1.06	 0.94;
	 10	 1	 26.81	 8	 0	 10	 1	 1	 0	 138	 1	 1.06	 0.94;
	 11	 1	 88.8	 22	 0	 10	 1	 1	 0	 138	 1	 1.06	 0.94;
	 12	 2	 46.91	 10	 0	 10	 1	 1	 0	 138	 1	 1.06	 0.94;
	 13	 1	 34	 0	 0	 0	 1	 1	 0	 138	 1	 1.06	 0.94;
	 14	 1	 33.51	 11	 0	 15	 1	 1	 0	 138	 1	 1.06	 0.94;
	 15	 2	 145.76	 30	 0	 0	 1	 1	 0	 138	 1	 1.06	 0.94;
	 16	 1	 28.48	 4	 0	 0	 1	 1	 0	 138	 1	 1.06	 0.94;
	 17	 1	 28.48	 8	 0	 0	 1	 1	 0	 138	 1	 1.06	 0.94;
	 18	 1	 30.16	 5	 0	 0	 1	 1	 0	 138	 1	 1.06	 0.94;
	 19	 1	 38.54	 11	 0	 0	 1	 1	 0	 138	 1	 1.06	 0.94;
	 20	 2	 189.32	 32	 0	 0	 1	 1	 0	 138	 1	 1.06	 0.94;
	 21	 2	 105.55	 22	 0	 0	 1	 1	 0	 138	 1	 1.06	 0.94;
	 22	 2	 140.74	 18	 0	 0	 1	 1	 0	 138	 1	 1.06	 0.94;
	 23	 1	 20.11	 3	 0	 0	 1	 1	 0	 138	 1	 1.06	 0.94;
	 24	 1	 20.11	 3	 0	 0	 1	 1	 0	 138	 1	 1.06	 0.94;
	 25	 2	 464.1	 113	 0	 0	 1	 1	 0	 138	 1	 1.06	 0.94;
	 26	 1	 130.68	 3	 0	 0	 1	 1	 0	 138	 1	 1.06	 0.94;
	 27	 2	 0	 0	 0	 0	 1	 1	 0	 138	 1	 1.06	 0.94;
	 28	 2	 129.01	 14	 0	 0	 1	 1	 0	 138	 1	 1.06	 0.94;
	 29	 1	 0	 0	 0	 0	 1	 1	 0	 345	 1	 1.06	 0.94;
	 30	 1	 0	 0	 0	 0	 1	 1	 0	 345	 1	 1.06	 0.94;
	 31	 2	 0	 0	 0	 0	 1	 1	 0	 345	 1	 1.06	 0.94;
	 32	 2	 65.34	 18	 0	 0	 1	 1	 0	 138	 1	 1.06	 0.94;
	 33	 1	 46.91	 7	 0	 0	 1	 1	 0	 138	 1	 1.06	 0.94;
	 34	 1	 0	 0	 0	 0	 1	 1	 0	 345	 1	 1.06	 0.94;
	 35	 3	 0	 0	 0	 0	 1	 1	 0	 138	 1	 1.06	 0.94;
	 36	 2	 110.58	 20	 0	 0	 1	 1	 0	 138	 1	 1.06	 0.94;
	 37	 1	 0	 0	 0	 0	 1	 1	 0	 138	 1	 1.06	 0.94;
	 38	 2	 12	 0	 0	 0	 1	 1	 0	 138	 1	 1.06	 0.94;
	 39	 2	 6	 0	 0	 0	 1	 1	 0	 138	 1	 1.06	 0.94;
	 40	 2	 113.93	 27	 0	 12	 1	 1	 0	 138	 1	 1.06	 0.94;
	 41	 1	 78.75	 11	 0	 0	 1	 1	 0	 138	 1	 1.06	 0.94;
	 42	 2	 113.93	 36	 0	 0	 1	 1	 0	 138	 1	 1.06	 0.94;
	 43	 1	 0	 0	 0	 0	 1	 1	 0	 345	 1	 1.06	 0.94;
	 44	 2	 184	 0	 0	 0	 1	 1	 0	 138	 1	 1.06	 0.94;
	 45	 1	 55.29	 15	 0	 0	 1	 1	 0	 138	 1	 1.06	 0.94;
];

mpc_regionR2.gen = [
%	bus         Pg          Qg          Qmax        Qmin        Vg          mBase       status      Pmax        Pmin        Pc1         Pc2         Qc1min      Qc1max      Qc2min      Qc2max      ramp_agc    ramp_10     ramp_30     ramp_q      apf         
	 1	 0	 0	 300	-300	 1	 100	 1	 0	 0;
	 6	 0	 0	 300	-300	 1	 100	 1	 0	 0;
	 8	 0	 0	 300	-300	 1	 100	 1	 0	 0;
	 12	 252.5	 0	 253	-253	 1	 100	 1	 505	 0;
	 15	 121	 0	 289.2	-289.2	 1	 100	 1	 242	 0;
	 20	 203.5	 0	 204	-204	 1	 100	 1	 407	 0;
	 21	 0	 0	 32.4	-32.4	 1	 100	 1	 0	 0;
	 22	 0	 0	 24	-24	 1	 100	 1	 0	 0;
	 25	 390	 0	 390	-390	 1	 100	 1	 780	 0;
	 27	 118.5	 0	 119	-119	 1	 100	 1	 237	 0;
	 28	 0	 0	 20	-20	 1	 100	 1	 0	 0;
	 31	 578	 0	 578	-578	 1	 100	 1	 1156	 0;
	 32	 69.5	 65	 200	-70	 1	 100	 1	 139	 0;
	 35	 56.5	 0	 300	-300	 1	 100	 1	 113	 0;
	 36	 0	 0	 316.8	-316.8	 1	 100	 1	 0	 0;
	 38	 0	 0	 100	-100	 1	 100	 1	 0	 0;
	 39	 0	 0	 100	-100	 1	 100	 1	 0	 0;
	 40	 0	 0	 86.4	-86.4	 1	 100	 1	 0	 0;
	 42	 0	 0	 40.8	-40.8	 1	 100	 1	 0	 0;
	 44	 0	 0	 1000	-1000	 1	 100	 1	 0	 0;
];

mpc_regionR2.branch = [
%	fbus        tbus        r           x           b           rateA       rateB       rateC       ratio       angle       status      angmin      angmax      
	 2	 3	 0.011	 0.0497	 0.01318	 175	 175	 175	 0	 0	 1	-30	 30;
	 4	 3	 0	 0.0375	 0	 783	 783	 783	 0.935	 0	 1	-30	 30;
	 3	 5	 0.0321	 0.106	 0.027	 151	 151	 151	 0	 0	 1	-30	 30;
	 3	 6	 0.0593	 0.168	 0.042	 140	 140	 140	 0	 0	 1	-30	 30;
	 5	 6	 0.0184	 0.0605	 0.01552	 151	 151	 151	 0	 0	 1	-30	 30;
	 6	 7	 0.0145	 0.0487	 0.01222	 152	 152	 152	 0	 0	 1	-30	 30;
	 6	 8	 0.0555	 0.183	 0.0466	 151	 151	 151	 0	 0	 1	-30	 30;
	 7	 8	 0.041	 0.135	 0.0344	 151	 151	 151	 0	 0	 1	-30	 30;
	 9	 10	 0.0608	 0.2454	 0.06068	 117	 117	 117	 0	 0	 1	-30	 30;
	 10	 11	 0.0224	 0.0901	 0.0224	 166	 166	 166	 0	 0	 1	-30	 30;
	 11	 12	 0.04	 0.1356	 0.0332	 153	 153	 153	 0	 0	 1	-30	 30;
	 12	 13	 0.038	 0.127	 0.0316	 152	 152	 152	 0	 0	 1	-30	 30;
	 12	 14	 0.0601	 0.189	 0.0472	 148	 148	 148	 0	 0	 1	-30	 30;
	 13	 15	 0.0191	 0.0625	 0.01604	 150	 150	 150	 0	 0	 1	-30	 30;
	 8	 15	 0.0715	 0.323	 0.086	 89	 89	 89	 0	 0	 1	-30	 30;
	 8	 15	 0.0715	 0.323	 0.086	 89	 89	 89	 0	 0	 1	-30	 30;
	 11	 15	 0.0684	 0.186	 0.0444	 138	 138	 138	 0	 0	 1	-30	 30;
	 14	 15	 0.0179	 0.0505	 0.01258	 140	 140	 140	 0	 0	 1	-30	 30;
	 15	 16	 0.0267	 0.0752	 0.01874	 140	 140	 140	 0	 0	 1	-30	 30;
	 15	 17	 0.0486	 0.137	 0.0342	 140	 140	 140	 0	 0	 1	-30	 30;
	 17	 18	 0.0203	 0.0588	 0.01396	 142	 142	 142	 0	 0	 1	-30	 30;
	 18	 19	 0.0405	 0.1635	 0.04058	 166	 166	 166	 0	 0	 1	-30	 30;
	 19	 20	 0.0263	 0.122	 0.031	 177	 177	 177	 0	 0	 1	-30	 30;
	 15	 20	 0.073	 0.289	 0.0738	 99	 99	 99	 0	 0	 1	-30	 30;
	 15	 20	 0.0869	 0.291	 0.073	 97	 97	 97	 0	 0	 1	-30	 30;
	 20	 21	 0.0169	 0.0707	 0.0202	 169	 169	 169	 0	 0	 1	-30	 30;
	 20	 22	 0.00275	 0.00955	 0.00732	 155	 155	 155	 0	 0	 1	-30	 30;
	 21	 22	 0.00488	 0.0151	 0.00374	 146	 146	 146	 0	 0	 1	-30	 30;
	 22	 23	 0.0343	 0.0966	 0.0242	 140	 140	 140	 0	 0	 1	-30	 30;
	 16	 23	 0.0474	 0.134	 0.0332	 140	 140	 140	 0	 0	 1	-30	 30;
	 22	 24	 0.0343	 0.0966	 0.0242	 140	 140	 140	 0	 0	 1	-30	 30;
	 17	 24	 0.0255	 0.0719	 0.01788	 140	 140	 140	 0	 0	 1	-30	 30;
	 20	 25	 0.0503	 0.2293	 0.0598	 125	 125	 125	 0	 0	 1	-30	 30;
	 22	 25	 0.0825	 0.251	 0.0569	 112	 112	 112	 0	 0	 1	-30	 30;
	 22	 25	 0.0803	 0.239	 0.0536	 117	 117	 117	 0	 0	 1	-30	 30;
	 21	 25	 0.04739	 0.2158	 0.05646	 133	 133	 133	 0	 0	 1	-30	 30;
	 25	 26	 0.0317	 0.145	 0.0376	 176	 176	 176	 0	 0	 1	-30	 30;
	 25	 27	 0.0328	 0.15	 0.0388	 176	 176	 176	 0	 0	 1	-30	 30;
	 26	 27	 0.00264	 0.0135	 0.01456	 186	 186	 186	 0	 0	 1	-30	 30;
	 26	 28	 0.0123	 0.0561	 0.01468	 176	 176	 176	 0	 0	 1	-30	 30;
	 27	 28	 0.00824	 0.0376	 0.0098	 176	 176	 176	 0	 0	 1	-30	 30;
	 29	 25	 0	 0.0386	 0	 760	 760	 760	 0.96	 0	 1	-30	 30;
	 29	 30	 0.00172	 0.02	 0.216	 687	 687	 687	 0	 0	 1	-30	 30;
	 30	 27	 0	 0.0268	 0	 1095	 1095	 1095	 0.985	 0	 1	-30	 30;
	 4	 31	 0.00901	 0.0986	 1.046	 297	 297	 297	 0	 0	 1	-30	 30;
	 30	 31	 0.00269	 0.0302	 0.38	 675	 675	 675	 0	 0	 1	-30	 30;
	 15	 32	 0.018	 0.0919	 0.0248	 186	 186	 186	 0	 0	 1	-30	 30;
	 15	 32	 0.018	 0.0919	 0.0248	 186	 186	 186	 0	 0	 1	-30	 30;
	 28	 32	 0.0482	 0.218	 0.0578	 132	 132	 132	 0	 0	 1	-30	 30;
	 28	 33	 0.0258	 0.117	 0.031	 176	 176	 176	 0	 0	 1	-30	 30;
	 31	 32	 0	 0.037	 0	 793	 793	 793	 0.935	 0	 1	-30	 30;
	 32	 33	 0.0224	 0.1015	 0.02682	 176	 176	 176	 0	 0	 1	-30	 30;
	 31	 34	 0.00138	 0.016	 0.638	 686	 686	 686	 0	 0	 1	-30	 30;
	 13	 35	 0.0844	 0.2778	 0.07092	 102	 102	 102	 0	 0	 1	-30	 30;
	 15	 35	 0.0985	 0.324	 0.0828	 87	 87	 87	 0	 0	 1	-30	 30;
	 34	 35	 0	 0.037	 0	 793	 793	 793	 0.935	 0	 1	-30	 30;
	 35	 36	 0.03	 0.127	 0.122	 170	 170	 170	 0	 0	 1	-30	 30;
	 1	 36	 0.00221	 0.4115	 0.10198	 72	 72	 72	 0	 0	 1	-30	 30;
	 36	 37	 0.00882	 0.0355	 0.00878	 166	 166	 166	 0	 0	 1	-30	 30;
	 1	 38	 0.0488	 0.196	 0.0488	 146	 146	 146	 0	 0	 1	-30	 30;
	 37	 38	 0.0446	 0.18	 0.04444	 159	 159	 159	 0	 0	 1	-30	 30;
	 37	 39	 0.00866	 0.0454	 0.01178	 188	 188	 188	 0	 0	 1	-30	 30;
	 36	 40	 0.0401	 0.1323	 0.03368	 151	 151	 151	 0	 0	 1	-30	 30;
	 36	 41	 0.0428	 0.141	 0.036	 151	 151	 151	 0	 0	 1	-30	 30;
	 35	 41	 0.0405	 0.122	 0.124	 145	 145	 145	 0	 0	 1	-30	 30;
	 40	 41	 0.0123	 0.0406	 0.01034	 151	 151	 151	 0	 0	 1	-30	 30;
	 34	 43	 0.00175	 0.0202	 0.808	 684	 684	 684	 0	 0	 1	-30	 30;
	 34	 44	 0.00034	 0.00405	 0.164	 7218	 7218	 7218	 1	 0	 1	-30	 30;
	 41	 45	 0.0145	 0.0481	 0.01198	 151	 151	 151	 0	 0	 1	-30	 30;
	 42	 45	 0.0164	 0.0544	 0.01356	 151	 151	 151	 0	 0	 1	-30	 30;
];

mpc_regionR2.gencost = [
%	2           startup     shutdown    n           c(n-1)...c0 
	 2	 0	 0	 3	 0	 0	 0;
	 2	 0	 0	 3	 0	 0	 0;
	 2	 0	 0	 3	 0	 0	 0;
	 2	 0	 0	 3	 0	 24.202306	 0;
	 2	 0	 0	 3	 0	 16.673942	 0;
	 2	 0	 0	 3	 0	 27.277343	 0;
	 2	 0	 0	 3	 0	 0	 0;
	 2	 0	 0	 3	 0	 0	 0;
	 2	 0	 0	 3	 0	 24.861868	 0;
	 2	 0	 0	 3	 0	 16.056042	 0;
	 2	 0	 0	 3	 0	 0	 0;
	 2	 0	 0	 3	 0	 34.781778	 0;
	 2	 0	 0	 3	 0	 32.668781	 0;
	 2	 0	 0	 3	 0	 25.758442	 0;
	 2	 0	 0	 3	 0	 0	 0;
	 2	 0	 0	 3	 0	 0	 0;
	 2	 0	 0	 3	 0	 0	 0;
	 2	 0	 0	 3	 0	 0	 0;
	 2	 0	 0	 3	 0	 0	 0;
	 2	 0	 0	 3	 0	 0	 0;
];


% -------------------- mpc_regionR3 --------------------

mpc_regionR3.version = '2';
mpc_regionR3.baseMVA = 100.0000;
mpc_regionR3.bus = [
%	bus_i       type        Pd          Qd          Gs          Bs          area        Vm          Va          baseKV      zone        Vmax        Vmin        
	 1	 2	 85.45	 27	 0	 0	 1	 1	 0	 138	 1	 1.06	 0.94;
	 2	 1	 33.51	 9	 0	 0	 1	 1	 0	 138	 1	 1.06	 0.94;
	 3	 1	 65.34	 10	 0	 0	 1	 1	 0	 138	 1	 1.06	 0.94;
	 4	 2	 65.34	 12	 0	 0	 1	 1	 0	 138	 1	 1.06	 0.94;
	 5	 1	 0	 0	 0	-40	 1	 1	 0	 138	 1	 1.06	 0.94;
	 6	 2	 87.12	 22	 0	 0	 1	 1	 0	 138	 1	 1.06	 0.94;
	 7	 1	 31.83	 2	 0	 0	 1	 1	 0	 138	 1	 1.06	 0.94;
	 8	 2	 28	 0	 0	 0	 1	 1	 0	 345	 1	 1.06	 0.94;
	 9	 1	 0	 0	 0	 0	 1	 1	 0	 345	 1	 1.06	 0.94;
	 10	 2	 0	 0	 0	 0	 1	 1	 0	 345	 1	 1.06	 0.94;
	 11	 1	 117.28	 23	 0	 0	 1	 1	 0	 138	 1	 1.06	 0.94;
	 12	 2	 78.75	 10	 0	 0	 1	 1	 0	 138	 1	 1.06	 0.94;
	 13	 1	 56.96	 16	 0	 0	 1	 1	 0	 138	 1	 1.06	 0.94;
	 14	 1	 23.46	 1	 0	 0	 1	 1	 0	 138	 1	 1.06	 0.94;
	 15	 2	 150.79	 30	 0	 0	 1	 1	 0	 138	 1	 1.06	 0.94;
	 16	 1	 41.89	 10	 0	 0	 1	 1	 0	 138	 1	 1.06	 0.94;
	 17	 1	 18.43	 3	 0	 0	 1	 1	 0	 138	 1	 1.06	 0.94;
	 18	 2	 100.53	 34	 0	 0	 1	 1	 0	 138	 1	 1.06	 0.94;
	 19	 2	 75.39	 25	 0	 0	 1	 1	 0	 138	 1	 1.06	 0.94;
	 20	 1	 30.16	 3	 0	 0	 1	 1	 0	 138	 1	 1.06	 0.94;
	 21	 1	 23.46	 8	 0	 0	 1	 1	 0	 138	 1	 1.06	 0.94;
	 22	 1	 16.75	 5	 0	 0	 1	 1	 0	 138	 1	 1.06	 0.94;
	 23	 1	 11.73	 3	 0	 0	 1	 1	 0	 138	 1	 1.06	 0.94;
	 24	 2	 0	 0	 0	 0	 1	 1	 0	 138	 1	 1.06	 0.94;
	 25	 2	 0	 0	 0	 0	 1	 1	 0	 345	 1	 1.06	 0.94;
	 26	 2	 118.96	 13	 0	 0	 1	 1	 0	 138	 1	 1.06	 0.94;
	 27	 1	 28.48	 7	 0	 0	 1	 1	 0	 138	 1	 1.06	 0.94;
	 28	 1	 40.21	 4	 0	 0	 1	 1	 0	 138	 1	 1.06	 0.94;
	 29	 1	 0	 0	 0	 0	 1	 1	 0	 345	 1	 1.06	 0.94;
	 30	 2	 72.04	 27	 0	 0	 1	 1	 0	 138	 1	 1.06	 0.94;
	 31	 2	 98.85	 23	 0	 0	 1	 1	 0	 138	 1	 1.06	 0.94;
	 32	 1	 38.54	 9	 0	 0	 1	 1	 0	 138	 1	 1.06	 0.94;
	 33	 2	 98.85	 26	 0	 14	 1	 1	 0	 138	 1	 1.06	 0.94;
	 34	 2	 51.94	 17	 0	 0	 1	 1	 0	 138	 1	 1.06	 0.94;
	 35	 2	 6	 0	 0	 0	 1	 1	 0	 138	 1	 1.06	 0.94;
	 36	 1	 13.4	 3	 0	 0	 1	 1	 0	 138	 1	 1.06	 0.94;
	 37	 1	 36.86	 7	 0	 0	 1	 1	 0	 138	 1	 1.06	 0.94;
	 38	 1	 33.51	 8	 0	 0	 1	 1	 0	 138	 1	 1.06	 0.94;
];

mpc_regionR3.gen = [
%	bus         Pg          Qg          Qmax        Qmin        Vg          mBase       status      Pmax        Pmin        Pc1         Pc2         Qc1min      Qc1max      Qc2min      Qc2max      ramp_agc    ramp_10     ramp_30     ramp_q      apf         
	 1	 0	 0	 117.6	-117.6	 1	 100	 1	 0	 0;
	 4	 0	 0	 300	-300	 1	 100	 1	 0	 0;
	 6	 0	 0	 115.2	-115.2	 1	 100	 1	 0	 0;
	 8	 0	 0	 300	-300	 1	 100	 1	 0	 0;
	 10	 401	 0	 401	-401	 1	 100	 1	 802	 0;
	 12	 379.5	 0	 380	-380	 1	 100	 1	 759	 0;
	 15	 0	 0	 100.8	-100.8	 1	 100	 1	 0	 0;
	 18	 0	 0	 111.6	-111.6	 1	 100	 1	 0	 0;
	 19	 0	 0	 97.2	-97.2	 1	 100	 1	 0	 0;
	 24	 106	 0	 153.6	-153.6	 1	 100	 1	 212	 0;
	 25	 220.5	 0	 243	-243	 1	 100	 1	 441	 0;
	 26	 0	 0	 300	-300	 1	 100	 1	 0	 0;
	 30	 284	 0	 284	-284	 1	 100	 1	 568	 0;
	 31	 0	 0	 103.2	-103.2	 1	 100	 1	 0	 0;
	 33	 0	 0	 175.2	-175.2	 1	 100	 1	 0	 0;
	 34	 0	 0	 74.4	-74.4	 1	 100	 1	 0	 0;
	 35	 0	 24.4	 200	-151.2	 1	 100	 1	 0	 0;
];

mpc_regionR3.branch = [
%	fbus        tbus        r           x           b           rateA       rateB       rateC       ratio       angle       status      angmin      angmax      
	 1	 2	 0.0303	 0.0999	 0.0254	 151	 151	 151	 0	 0	 1	-30	 30;
	 1	 3	 0.0129	 0.0424	 0.01082	 151	 151	 151	 0	 0	 1	-30	 30;
	 4	 5	 0.00176	 0.00798	 0.0021	 176	 176	 176	 0	 0	 1	-30	 30;
	 3	 5	 0.0241	 0.108	 0.0284	 175	 175	 175	 0	 0	 1	-30	 30;
	 5	 6	 0.0119	 0.054	 0.01426	 176	 176	 176	 0	 0	 1	-30	 30;
	 6	 7	 0.00459	 0.0208	 0.0055	 176	 176	 176	 0	 0	 1	-30	 30;
	 8	 9	 0.00244	 0.0305	 1.162	 711	 711	 711	 0	 0	 1	-30	 30;
	 8	 5	 0	 0.0267	 0	 1099	 1099	 1099	 0.985	 0	 1	-30	 30;
	 9	 10	 0.00258	 0.0322	 1.23	 710	 710	 710	 0	 0	 1	-30	 30;
	 4	 11	 0.0209	 0.0688	 0.01748	 151	 151	 151	 0	 0	 1	-30	 30;
	 5	 11	 0.0203	 0.0682	 0.01738	 152	 152	 152	 0	 0	 1	-30	 30;
	 11	 12	 0.00595	 0.0196	 0.00502	 151	 151	 151	 0	 0	 1	-30	 30;
	 2	 12	 0.0187	 0.0616	 0.01572	 151	 151	 151	 0	 0	 1	-30	 30;
	 3	 12	 0.0484	 0.16	 0.0406	 151	 151	 151	 0	 0	 1	-30	 30;
	 7	 12	 0.00862	 0.034	 0.00874	 164	 164	 164	 0	 0	 1	-30	 30;
	 11	 13	 0.02225	 0.0731	 0.01876	 151	 151	 151	 0	 0	 1	-30	 30;
	 12	 14	 0.0215	 0.0707	 0.01816	 151	 151	 151	 0	 0	 1	-30	 30;
	 13	 15	 0.0744	 0.2444	 0.06268	 115	 115	 115	 0	 0	 1	-30	 30;
	 14	 15	 0.0595	 0.195	 0.0502	 144	 144	 144	 0	 0	 1	-30	 30;
	 12	 16	 0.0212	 0.0834	 0.0214	 164	 164	 164	 0	 0	 1	-30	 30;
	 15	 17	 0.0132	 0.0437	 0.0444	 151	 151	 151	 0	 0	 1	-30	 30;
	 16	 17	 0.0454	 0.1801	 0.0466	 158	 158	 158	 0	 0	 1	-30	 30;
	 17	 18	 0.0123	 0.0505	 0.01298	 167	 167	 167	 0	 0	 1	-30	 30;
	 18	 19	 0.01119	 0.0493	 0.01142	 173	 173	 173	 0	 0	 1	-30	 30;
	 19	 20	 0.0252	 0.117	 0.0298	 178	 178	 178	 0	 0	 1	-30	 30;
	 15	 19	 0.012	 0.0394	 0.0101	 151	 151	 151	 0	 0	 1	-30	 30;
	 20	 21	 0.0183	 0.0849	 0.0216	 177	 177	 177	 0	 0	 1	-30	 30;
	 21	 22	 0.0209	 0.097	 0.0246	 178	 178	 178	 0	 0	 1	-30	 30;
	 22	 23	 0.0342	 0.159	 0.0404	 178	 178	 178	 0	 0	 1	-30	 30;
	 23	 24	 0.0156	 0.08	 0.0864	 186	 186	 186	 0	 0	 1	-30	 30;
	 25	 24	 0	 0.0382	 0	 768	 768	 768	 0.96	 0	 1	-30	 30;
	 24	 26	 0.0318	 0.163	 0.1764	 177	 177	 177	 0	 0	 1	-30	 30;
	 26	 27	 0.01913	 0.0855	 0.0216	 174	 174	 174	 0	 0	 1	-30	 30;
	 27	 28	 0.0237	 0.0943	 0.0238	 165	 165	 165	 0	 0	 1	-30	 30;
	 29	 17	 0	 0.0388	 0	 756	 756	 756	 0.96	 0	 1	-30	 30;
	 8	 29	 0.00431	 0.0504	 0.514	 580	 580	 580	 0	 0	 1	-30	 30;
	 25	 29	 0.00799	 0.086	 0.908	 340	 340	 340	 0	 0	 1	-30	 30;
	 17	 30	 0.0474	 0.1563	 0.0399	 151	 151	 151	 0	 0	 1	-30	 30;
	 28	 30	 0.0108	 0.0331	 0.0083	 146	 146	 146	 0	 0	 1	-30	 30;
	 23	 31	 0.0317	 0.1153	 0.1173	 158	 158	 158	 0	 0	 1	-30	 30;
	 30	 31	 0.0298	 0.0985	 0.0251	 151	 151	 151	 0	 0	 1	-30	 30;
	 26	 31	 0.0229	 0.0755	 0.01926	 151	 151	 151	 0	 0	 1	-30	 30;
	 15	 32	 0.038	 0.1244	 0.03194	 150	 150	 150	 0	 0	 1	-30	 30;
	 19	 33	 0.0752	 0.247	 0.0632	 114	 114	 114	 0	 0	 1	-30	 30;
	 33	 34	 0.00871	 0.0268	 0.00568	 146	 146	 146	 0	 0	 1	-30	 30;
	 17	 35	 0.00913	 0.0301	 0.00768	 151	 151	 151	 0	 0	 1	-30	 30;
	 31	 35	 0.0615	 0.203	 0.0518	 139	 139	 139	 0	 0	 1	-30	 30;
	 31	 36	 0.0135	 0.0612	 0.01628	 176	 176	 176	 0	 0	 1	-30	 30;
	 26	 37	 0.0164	 0.0741	 0.01972	 175	 175	 175	 0	 0	 1	-30	 30;
	 36	 37	 0.0023	 0.0104	 0.00276	 175	 175	 175	 0	 0	 1	-30	 30;
	 12	 38	 0.0329	 0.14	 0.0358	 170	 170	 170	 0	 0	 1	-30	 30;
];

mpc_regionR3.gencost = [
%	2           startup     shutdown    n           c(n-1)...c0 
	 2	 0	 0	 3	 0	 0	 0;
	 2	 0	 0	 3	 0	 0	 0;
	 2	 0	 0	 3	 0	 0	 0;
	 2	 0	 0	 3	 0	 0	 0;
	 2	 0	 0	 3	 0	 24.98342	 0;
	 2	 0	 0	 3	 0	 124.581564	 0;
	 2	 0	 0	 3	 0	 0	 0;
	 2	 0	 0	 3	 0	 0	 0;
	 2	 0	 0	 3	 0	 0	 0;
	 2	 0	 0	 3	 0	 28.948321	 0;
	 2	 0	 0	 3	 0	 22.22098	 0;
	 2	 0	 0	 3	 0	 0	 0;
	 2	 0	 0	 3	 0	 25.993982	 0;
	 2	 0	 0	 3	 0	 0	 0;
	 2	 0	 0	 3	 0	 0	 0;
	 2	 0	 0	 3	 0	 0	 0;
	 2	 0	 0	 3	 0	 0	 0;
];


% ---------- Interregional Tie-Line Information ----------
% Each row: {From_Region (string), To_Region (string), Branch_Data (1x13 array)}
% Branch_Data: {fbus, tbus, r, x, b, rateA, rateB, rateC, ratio, angle, status, angmin, angmax}

interregional_tielines_total = {
	{'mpc_regionR3', 'mpc_regionR2', [ 23	 1	 0.0135	 0.0492	 0.0498	 158	 158	 158	 0	 0	 1	-30	 30]},
	{'mpc_regionR2', 'mpc_regionR3', [ 2	 34	 0.00224	 0.0102	 0.00268	 176	 176	 176	 0	 0	 1	-30	 30]},
	{'mpc_regionR3', 'mpc_regionR2', [ 32	 3	 0.0415	 0.142	 0.0366	 154	 154	 154	 0	 0	 1	-30	 30]},
	{'mpc_regionR3', 'mpc_regionR2', [ 33	 3	 0.00256	 0.0094	 0.00984	 159	 159	 159	 0	 0	 1	-30	 30]},
	{'mpc_regionR3', 'mpc_regionR2', [ 29	 4	 0.00464	 0.054	 0.422	 542	 542	 542	 0	 0	 1	-30	 30]},
	{'mpc_regionR3', 'mpc_regionR2', [ 33	 9	 0.0413	 0.1681	 0.04226	 167	 167	 167	 0	 0	 1	-30	 30]},
	{'mpc_regionR2', 'mpc_regionR1', [ 42	 1	 0.0444	 0.148	 0.0368	 152	 152	 152	 0	 0	 1	-30	 30]},
	{'mpc_regionR2', 'mpc_regionR1', [ 35	 1	 0.0309	 0.101	 0.1038	 150	 150	 150	 0	 0	 1	-30	 30]},
	{'mpc_regionR2', 'mpc_regionR1', [ 41	 1	 0.0601	 0.1999	 0.04978	 141	 141	 141	 0	 0	 1	-30	 30]},
	{'mpc_regionR2', 'mpc_regionR1', [ 43	 4	 0	 0.037	 0	 793	 793	 793	 0.935	 0	 1	-30	 30]},
};

